24
 energy: -43.201865066501 gnorm: 0.001260173382 xtb: 6.4.0 (d4b70c2)
C         0.79609544834042    1.44547910824581   -0.58804438151628
C        -0.74618399890104    1.51005484515235   -0.32174111899020
C         1.29725015014714   -0.02021092012437   -0.77868794641583
C        -1.33890000000001    0.38039999999999    0.40540000000000
C         2.75557391375958   -0.10759741179759   -0.26827022713041
C        -0.60677871855277   -0.30622006670028    1.48316893494072
O         1.13060877619891    2.25635809555370   -1.67308665170383
O        -1.47653205216887    1.85069302512301   -1.45307839260965
O         0.52760000000001   -0.93820000000000   -0.13549999999999
O        -1.63520000000000   -1.34970000000000   -1.03500000000001
O         3.28330720559528   -1.38218096996179   -0.48292583834256
O        -1.01900609229362   -1.29110248813328    2.04868759736616
H         0.96292117369711    1.77226116663903   -2.49429104915055
H        -0.98545388678484    2.53577043070572   -1.93181035878826
H        -0.56809999999999   -1.34640000000000   -0.71910000000002
H        -2.06922730228123   -1.97295126319800   -0.44657623755343
H         2.66727074510042   -2.01766422047100   -0.09315111434770
H         1.31236927921011    1.87687114160607    0.27556033094872
H        -0.85891130246209    2.32047879563281    0.43937733373971
H         1.28242022512104   -0.23176298508006   -1.86425472588074
H        -2.41210925270710    0.27605292591310    0.32383850795502
H         3.38947398131021    0.59920144320898   -0.80663923586270
H         2.76171350520720    0.13986121044279    0.80467582575692
H         0.26348030441570    0.26253114944681    1.85888603693753
