24
 energy: -43.191377102138 gnorm: 0.008358289312 xtb: 6.4.0 (d4b70c2)
C         0.23118470900743    0.04300221476758    0.88529114544058
C        -0.80471223335406    0.70162369277064   -0.12720051508416
C         1.65461582497198    0.61638958517298    0.61034085227678
C        -2.16430000000000    0.04240000000002    0.11939999999999
C         2.68555901584442   -0.23943437711456   -0.14623411755859
C        -2.40110000000000   -1.17320000000000   -0.56550000000000
O        -0.19980000000000   -1.45210000000000    0.99810000000000
O        -0.44893155107776    0.47764704125365   -1.46218385437615
O         1.46280385042638    1.82378165386528   -0.10460909881971
O        -3.19747647787297    0.82447907098795    0.62242368637837
O         3.58265646722647    0.61283211847787   -0.82806852930847
O        -1.46480000000000   -1.96050000000000   -0.95660000000000
H        -0.56180000000000   -1.79660000000000   -0.05830000000000
H         0.29306045997240    1.05048057776781   -1.68609715837655
H         2.15026889513044    1.85532929639793   -0.79653232545736
H        -4.02645661319698    0.41985345666981    0.34191842856258
H         4.09864951419498    1.12473336703736   -0.19115654772545
H        -0.02193054391810    0.44286659777876    1.87784425588619
H        -0.89930799332239    1.76980055506820    0.09242548764024
H         2.08416428223210    0.90090414212121    1.58477354755300
H        -1.10139999999996   -0.67429999999998    0.95100000000000
H         3.21185179427544   -0.88689561177122    0.55965813042534
H         2.20237161602215   -0.84073250685554   -0.91566003975243
H        -3.42562220699449   -1.54152615058997   -0.67016831776517
