24
 energy: -43.257245100450 gnorm: 0.003886859936 xtb: 6.4.0 (d4b70c2)
C         0.11223894781288    0.88823608362392    0.04092175418143
C        -1.21399711363019    1.64598953215536    0.28030275420612
C         1.45102234004339    1.51972502051673    0.49608758896854
C        -2.32359728986179    0.54099467242265    0.07974129056828
C         2.28724752062125    0.52895665748335    1.33498817369660
C        -1.75959999999999   -0.85350000000000    0.48399999999997
O        -0.11100000000003   -0.33879999999996    0.64579999999999
O        -1.38824952378076    2.72446012967504   -0.58644142322653
O         2.24219148009560    1.83460405427545   -0.62863632083786
O        -2.77645436364612    0.58227383943480   -1.25013875572916
O         2.49027210660517   -0.70333019384876    0.70596989114791
O        -1.79410000000001   -1.23820000000002    1.73530000000000
H        -0.56460000000001   -0.82359999999998    1.63980000000004
H        -2.02052475009015    2.44716127039527   -1.27132366089623
H         1.80730066735663    2.51740008450877   -1.15043308822379
H        -2.14506419317164    0.12750712073128   -1.82112717641215
H         2.84763219484402   -0.53523354822026   -0.17401392385020
H         0.21676653454603    0.70323410807749   -1.04427264705233
H        -1.23435136336384    2.01748552450947    1.31163997413806
H         1.26234763376598    2.41768261378387    1.09913434497032
H        -3.18826243870684    0.78347823531910    0.70261886065167
H         3.24936499347027    1.01675671570002    1.54279054082600
H         1.78177596476657    0.31593238142214    2.27860133062672
H        -1.82675370429049   -1.60394726598465   -0.30916947927498
