47
 energy: -62.942493259569 gnorm: 0.002000620919 xtb: 6.4.0 (d4b70c2)
C         1.74421603015269   -3.46804147537467    0.86378636231822
C         0.93933271629520   -3.37154809548542   -0.52050822050289
C        -0.33525393293738   -2.54355517299437   -1.00873004909063
H         0.61086885120025   -4.40689576540707   -0.65713966215366
H         1.70603984887504   -3.22581145974628   -1.28668825601364
C        -0.44220000000000   -1.08340000000003   -0.55209999999997
H        -1.24296942355493   -3.07138271176686   -0.70360832138355
H        -0.32138663855200   -2.60303702438899   -2.09957244187506
C         2.87332914096212   -4.46212623706286    0.55168597555358
H         2.48590356416336   -5.36467160633086    0.08266428221714
H         3.37761688906233   -4.75801769648101    1.46859955187242
H         3.60813262479464   -4.02023340538059   -0.11898030291984
C         2.40782070083764   -2.21893793179889    1.59693270563244
H         1.10482062487123   -3.96927487389989    1.58892125700321
C         2.31310000000008   -1.05819999999992    0.68720000000008
H         3.45607978181024   -2.45804210941795    1.79684348946590
H         1.94409188439693   -2.02124656593628    2.56452138894174
C         2.44759999999999    0.20940000000000    0.13120000000002
C         1.85920000000004    0.57529999999993   -1.08079999999998
C        -0.02960000000000   -1.13010000000006    0.79910000000012
C         0.10291350036942    0.08885721237696    1.64119302567519
C        -0.59930161744254   -2.20665574272173    1.70847785010025
H        -1.58351724289672   -1.82353728521369    1.99847622977074
H        -0.03525965489305   -2.29976127737314    2.62948712660197
H        -0.75283477906645   -3.17588096122077    1.26386877964634
O         0.36416803822112    0.01502360245262    2.82373404766242
C        -0.10904554305155    1.48029677922460    1.01487799811452
C        -1.03860422065648    2.28386096649116    1.87076345703840
H        -0.47501794160202    1.43141120873871   -0.00604799796726
H         0.85226274315378    1.99526124695091    1.04756002853121
S        -2.45498331784573    2.86219246325625    0.94353059069343
C        -3.25637088992899    3.88476230812843    2.20353213772776
H        -3.07999914913343    4.93112051675032    1.97350364106022
H        -2.80095977926748    3.62058558476666    3.15582391144512
H        -4.31866310776726    3.66798059063357    2.20291088978833
O        -0.90524609614780    2.56525740309918    3.02442181129674
C         1.12500000000001   -0.32300000000024   -1.86139999999998
C         0.43929267065880    0.20159042521380   -3.03324411964922
C         0.24099037163779   -0.48195791457965   -4.15387684464935
H        -1.08753748743732   -0.37461167512342   -1.02722063869350
H         0.09623206423649    1.22716776279396   -2.96348843716635
H         0.58647444368539   -1.49645702317700   -4.26918771390808
H        -0.25104640369102   -0.04583672739159   -5.00562368199552
H         1.83557464219333    1.62720005446114   -1.32164308505946
H         1.50424946422051   -1.32217790244582   -1.97913415535959
H         2.10782315977158   -1.59857920855264   -0.24285397963501
H         2.89462828024195    1.01514739428598    0.71417813512129
