47
 energy: -63.069618490170 gnorm: 0.001583005378 xtb: 6.4.0 (d4b70c2)
C         2.03325981677745   -3.38370062944246    1.63709685897301
C         0.83530659460020   -2.61535308415650    2.20958998034099
C         0.83294465044586   -1.10637604994288    1.94228406437796
H         0.81717351948037   -2.77682344617812    3.29040138372668
H        -0.08402663745537   -3.04002126913788    1.80011260642161
C         0.62120000000000   -0.81820000000000    0.49029999999998
H         1.75286036195379   -0.65452475147015    2.32147554050541
H         0.00356531064043   -0.65816355668323    2.50173593983692
C         1.90761718212893   -4.86653222921491    1.98352622985385
H         1.86292155973842   -5.01108907058633    3.06092173740961
H         2.76079562940273   -5.42186670602458    1.59868133880794
H         1.00326657494403   -5.28288106493746    1.54392727091036
C         2.17427717321447   -3.21381950056713    0.12087919417639
H         2.94756463696466   -2.99732221229223    2.10441281026821
C         2.43350000000000   -1.78680000000000   -0.23470000000002
H         3.01295899613703   -3.82877701477426   -0.22537467009311
H         1.28035368698392   -3.58021262995792   -0.38887208380620
C         2.60320000000000   -1.32710000000000   -1.54430000000001
C         2.68299999999999    0.03080000000000   -1.85870000000000
C         0.43009999999999    0.45570000000001   -0.09190000000000
C        -0.34712721958735    0.46952769640440   -1.32036416461035
C         0.46354896870508    1.64574661009126    0.83951278860938
H        -0.47424311489015    1.72522470931717    1.38750243463733
H         0.64099672545733    2.58239703429476    0.31813892965946
H         1.25228477700921    1.52009077796997    1.57581929334081
O        -0.27897963426820   -0.40518115863697   -2.15905386905029
C        -1.36523252392818    1.60901449010086   -1.48295814373599
C        -2.70374784046485    1.22074670289508   -0.91514292580840
H        -1.51377119740023    1.80552112130753   -2.54688497874312
H        -1.02078772168401    2.50939449951962   -0.97832974238663
S        -2.65321438920215    0.69759900949941    0.79008712833279
C        -4.41062464021106    0.43041660834967    1.13763324594577
H        -4.72192995347482    1.14234282521541    1.89645503376659
H        -4.54097223215214   -0.58577006612727    1.49642191152208
H        -4.95080737446043    0.59064104117402    0.20744131897762
O        -3.74799725963391    1.25710084243706   -1.50307749061233
C         2.55149999999997    1.03789999999998   -0.90869999999998
C         2.52653023605731    2.41323894808566   -1.34180642611841
C         2.82622104137016    3.45674997583230   -0.56918463010778
H         0.09201892101271   -1.60250858383853   -0.03687401751805
H         2.24612919740823    2.57792446088596   -2.37507215583513
H         3.12480913247579    3.33341441459541    0.45872479030857
H         2.80769076399541    4.46580255895797   -0.94364620098594
H         2.64696777438828    0.30588509591577   -2.90326884065762
H         2.83839154511361    0.85384218446106    0.11210837673382
H         2.96075525666827   -1.22804432421756    0.52602554329768
H         2.43980865858889   -2.01966870312584   -2.35870792095733
