12
 energy: -21.443468440864 gnorm: 0.001887339618 xtb: 6.4.0 (d4b70c2)
C        -1.17269415799513   -0.94442739517687    0.34378850771382
C        -0.01549999999999   -0.77260000000000   -0.60410000000001
C         1.86700000000001   -0.18050000000002    0.12079999999999
O        -1.18622002779686   -0.00358305990056    1.40841320832778
O        -1.37411770298400    1.31212368317964    0.91978232931236
O         2.55769999999999    0.03390000000000   -0.80920000000001
H        -2.28057799182988    1.53727780496458    1.17595456424775
H        -2.12914889913575   -0.89049734440015   -0.20416864976110
H        -1.12955295543778   -1.89877649250023    0.87629181153307
H         1.02320000000002   -0.44350000000000    0.75430000000001
H        -0.15766488837169    0.05682645771474   -1.28676842085583
H         0.23635587264598   -1.68272612163173   -1.13175141613210
