12
 energy: -21.476145832236 gnorm: 0.004870587474 xtb: 6.4.0 (d4b70c2)
C        -0.96161439996948   -1.14323365574901    0.01600192191345
C         0.50093917616106   -1.15796306263083    0.47111583103145
C         0.91300000000000    0.24780000000000    0.65730000000000
O        -1.60709319703241   -0.05321185248059    0.62983694833050
O        -0.76220000000000    1.07190000000000    0.56360000000000
O         1.66668735761192    0.81964296197629    1.35183072563404
H        -0.01640000000000    1.09920000000000   -0.50450000000000
H        -1.01245088438083   -1.06564146644056   -1.08015409084119
H        -1.49707162772242   -2.03632276232302    0.34136040012260
H         0.85680000000000    0.84510000000000   -0.81160000000000
H         1.15397953100634   -1.62947303391773   -0.26282442011127
H         0.62522783940558   -1.65001115390315    1.43806755613841
