12
 energy: -21.504295172268 gnorm: 0.007429913335 xtb: 6.4.0 (d4b70c2)
C        -0.22398501548588   -1.71239486904103    0.28974507031066
C         1.11385188722526   -1.11392883329551   -0.17742877607174
C         0.80300000000000    0.32880000000000   -0.60210000000000
O        -0.85689753093540   -0.72340612127317    1.05999263230017
O        -0.80860000000000    0.44540000000000    0.28870000000000
O         1.25570000000000    1.19530000000000    0.25470000000000
H         0.04790000000000    1.28850000000000    0.57700000000000
H        -0.84157637969297   -1.99606368343092   -0.57175700734213
H        -0.12240742181377   -2.55983069589601    0.96608201672033
H         0.60166819660438    0.56611785844637   -1.64481557713653
H         1.59900748873947   -1.72506545420630   -0.93287042093840
H         1.76020643360156   -1.02151966747144    0.70352453941232
