24
xtb energy = -43.280358362283
C                    -0.26036215          -1.26006034           0.21846228         
C                     1.25501472          -1.14390781          -0.20190337         
C                    -0.62490000          -0.08700000           1.15730000         
C                     1.68449572           0.26615767          -0.76622151         
C                    -2.01452023           0.52651565           1.14556761         
C                     1.16580000           1.43280000           0.12970000         
O                    -1.07940596          -1.22229329          -0.93240029         
O                     1.49144411          -2.10744303          -1.19767409         
O                     0.10220000          -0.00360000           2.24320000         
O                     1.22406775           0.38460813          -2.09034392         
O                    -2.38017200           1.06120582          -0.09563340         
O                     1.64260000           1.51920000           1.33710000         
H                    -0.77139345          -1.93208629          -1.51379382         
H                     1.56432900          -1.63214343          -2.04213189         
H                     0.94860000           0.77720000           2.02110000         
H                     0.26156162           0.49074672          -2.08205357         
H                    -2.39987367           0.34054721          -0.73937156         
H                    -0.38179002          -2.21845387           0.74147158         
H                     1.86279286          -1.38633105           0.67554823         
H                     0.10310000           0.62760000           0.25820000         
H                     2.77769051           0.27368394          -0.82359858         
H                    -2.01776968           1.35264087           1.86165497         
H                    -2.73259022          -0.23444381           1.48302592         
H                     0.83713976           2.33361504          -0.38470078         
