24
xtb energy = -43.208410292485
C                    -1.24100941          -0.58026643           0.48456052         
C                     0.14120007          -1.11741664           1.06552594         
C                    -0.97251430           0.70037626          -0.33260803         
C                     1.34660000          -0.85850000           0.22850000         
C                    -0.74412400           1.96538558           0.55497681         
C                     2.07243282           0.39857806           0.22968903         
O                    -1.82604621          -1.58635392          -0.26954517         
O                     0.00173067          -2.47558030           1.33951040         
O                     0.03530000           0.46420000          -1.20190000         
O                     0.55600000          -1.80720000          -1.67690000         
O                    -0.52238696           1.67671980           1.90894896         
O                     2.03684602           1.21838772           1.11959970         
H                    -1.24959370          -1.78647564          -1.03165677         
H                    -0.77055936          -2.79853769           0.84045028         
H                     0.22030000          -0.74640000          -1.65810000         
H                     1.22137348          -1.88661151          -2.36169561         
H                     0.43554796           1.58990359           2.04409401         
H                    -1.93069093          -0.36286334           1.30353659         
H                     0.26456581          -0.56848022           2.01241772         
H                    -1.89341546           0.87121460          -0.91888462         
H                     1.90453300          -1.74870970          -0.02726446         
H                     0.09600254           2.52031874           0.12473898         
H                    -1.63234076           2.60005470           0.51280583         
H                     2.76066040           0.51376851          -0.62231222         
