24
xtb energy = -43.272871308432
C                    -0.39343017          -0.10962819           0.60939469         
C                     0.49439695           0.26984490           1.83531478         
C                    -1.88117673          -0.11247176           0.99493988         
C                     1.89059571           0.46230712           1.22983258         
C                    -2.75253349          -0.82621781          -0.05526628         
C                     1.61160000           1.19950000          -0.04140000         
O                    -0.01220000           0.75400000          -0.45860000         
O                     0.50338814          -0.67620315           2.85995408         
O                    -2.09608321          -0.83841366           2.18629572         
O                     2.46417664          -0.80819167           1.04301814         
O                    -4.05125562          -1.00847027           0.42771455         
O                     1.27980000           2.46460000           0.02440000         
H                     0.14530000           1.93120000          -0.32350000         
H                     1.11929127          -1.37753970           2.60082263         
H                    -1.32013525          -0.78257847           2.76492501         
H                     3.25583707          -0.72172781           0.50111607         
H                    -3.96365496          -1.32640490           1.33834767         
H                    -0.11677054          -1.12930370           0.30016486         
H                     0.14455439           1.21842694           2.25741424         
H                    -2.22579415           0.92543050           1.12796799         
H                     2.51583851           1.09910851           1.87027708         
H                    -2.82171332          -0.24368468          -0.97385345         
H                    -2.28868642          -1.80083958          -0.27669380         
H                     2.18557630           0.86396969          -0.92083328         
