48
xtb energy = -65.745100518708
Si                   -1.92900000           1.78580000          -0.72540000         
C                    -2.53755267           1.76244460          -2.55115561         
H                    -3.15502121           2.63232967          -2.75159053         
H                    -3.12800937           0.87940331          -2.76905761         
H                    -1.71503837           1.77872458          -3.25886871         
C                    -3.50216836           1.56912488           0.33209220         
H                    -3.33364841           1.86179829           1.36310444         
H                    -3.83966821           0.53759039           0.33128916         
H                    -4.30977939           2.17770467          -0.05690864         
C                    -1.17744637           3.55564724          -0.68579213         
O                    -0.76200000           1.49210000           0.77050000         
H                    -0.20295190           3.58895819          -1.16318488         
H                    -1.05677043           3.92618909           0.32519920         
H                    -1.82138038           4.24365742          -1.22066257         
C                    -0.26400000           0.45850000           1.35930000         
C                     0.96197272           0.72156120           2.21643923         
H                     0.97283097           1.78176906           2.46785582         
H                     0.90167196           0.15797190           3.14644636         
C                    -0.25920000          -0.83310000           0.82800000         
C                    -0.77080000          -0.95960000          -0.47430000         
O                    -0.22454918          -1.93652571          -1.24728621         
C                     0.59579471          -1.93271768           1.38981374         
C                     2.31044568          -0.54668819           0.27829162         
C                     2.33701058           0.38378166           1.48367327         
C                     3.06468821          -0.09475824          -0.93447467         
O                    -1.30260000          -0.03500000          -1.17240000         
C                     2.99558482           1.70068021           1.05922409         
C                     4.46604317           0.37240863          -0.54857864         
H                     2.51814775           0.72507674          -1.40887200         
H                     3.12854509          -0.90760801          -1.65865491         
C                     4.40396752           1.49911599           0.49398657         
H                     3.06605046           2.36862701           1.91974102         
H                     2.35720281           2.18633001           0.31950777         
H                     4.99684914           0.70503935          -1.44151421         
H                     5.01125467          -0.48308524          -0.14478769         
H                     5.08724312           1.27310316           1.31479576         
H                     4.73194638           2.44042742           0.05039113         
C                     0.05090611          -3.35405773           1.21064291         
C                     1.60741318          -1.68375234           0.30077368         
H                     0.92020293          -1.73991244           2.40542026         
C                     1.02305355          -2.53239003          -0.80098866         
C                     0.68219718          -3.84469003          -0.10006563         
H                     1.59508339          -4.41021405           0.08629864         
H                     0.00272082          -4.44913040          -0.69718747         
H                    -1.03703640          -3.34125713           1.14023091         
H                     0.32826124          -3.98798753           2.05175155         
H                     1.62120593          -2.64325732          -1.70561875         
H                     2.96979479          -0.08471216           2.24736763         
