47
xtb energy = -63.069816227566
C                    -3.62857034           2.68544254           0.62670390         
C                    -2.13696298           2.91847481           0.90252227         
C                    -1.35738128           1.70210949           1.42291821         
H                    -2.05488473           3.72756286           1.63257030         
H                    -1.66104901           3.26207795          -0.01933313         
C                    -1.22690000           0.67890000           0.34210000         
H                    -1.82901860           1.30163445           2.32347857         
H                    -0.35401799           2.03659259           1.71141559         
C                    -4.25930003           3.96406996           0.07447380         
H                    -4.12118163           4.79948977           0.75608754         
H                    -5.32649938           3.82342079          -0.08450996         
H                    -3.80725793           4.22286110          -0.88128050         
C                    -3.88814123           1.54661842          -0.36204905         
H                    -4.12020265           2.43261936           1.57373268         
C                    -3.34870000           0.23800000           0.11410000         
H                    -3.46087510           1.78901651          -1.33799314         
H                    -4.97126009           1.45219326          -0.50432507         
C                    -3.40770000          -0.90090000          -0.69500000         
C                    -2.75160000          -2.08890000          -0.36760000         
C                    -0.43400000          -0.49070000           0.30470000         
C                    -0.12005272          -1.01363831          -1.00866645         
C                     0.38130463          -0.77694631           1.54176438         
H                     1.23312547          -0.09669843           1.58103777         
H                     0.76278574          -1.79105796           1.58576501         
H                    -0.21608202          -0.59705662           2.43251574         
O                    -0.80194108          -0.76880680          -1.98454787         
C                     1.15605533          -1.86461305          -1.15922005         
C                     2.27477428          -0.92232191          -1.48530383         
H                     1.00773476          -2.52339564          -2.01615496         
H                     1.37403528          -2.43310931          -0.25972871         
S                     3.29322484          -0.53490379          -0.07046296         
C                     4.40862315           0.70105922          -0.78221952         
H                     4.19644921           1.66590125          -0.33092909         
H                     4.21052723           0.72233711          -1.85212836         
H                     5.43230442           0.40381978          -0.57952784         
O                     2.50692560          -0.43390841          -2.55417363         
C                    -1.94760000          -2.22540000           0.75890000         
C                    -1.18554534          -3.40821069           1.09309859         
C                    -0.72340017          -4.32372947           0.24416207         
H                    -1.33028267           1.10894555          -0.64979504         
H                    -0.96592601          -3.52462583           2.14883083         
H                    -0.16391856          -5.17615065           0.59025779         
H                    -0.88433069          -4.25339180          -0.81724172         
H                    -2.74012903          -2.87791011          -1.10534648         
H                    -2.15649203          -1.57945133           1.59754893         
H                    -3.37670911           0.08512531           1.18313299         
H                    -3.78197851          -0.79921574          -1.70310870         
