12
xtb energy = -21.444102122868
C                     1.70445691          -1.00458153           0.68359139         
C                     0.67150000          -1.30190000          -0.37450000         
C                    -1.23950000          -0.42600000          -0.39910000         
O                     2.27088010           0.27996731           0.59021350         
O                     1.27237441           1.26086123           0.90393716         
O                    -1.79360000          -0.80250000          -1.36810000         
H                     1.76475515           2.08130062           0.77993428         
H                     2.58729762          -1.64440684           0.54684291         
H                     1.31139093          -1.17218209           1.69745161         
H                    -0.50080000          -0.25930000           0.38130000         
H                     0.35558994          -2.33813674          -0.33445382         
H                     1.00863172          -1.03100842          -1.36769021         
