12
xtb energy = -21.484722368259
C                     0.52070000           0.64300000          -0.07350000         
C                    -0.47842751           0.14369634          -1.11405306         
C                    -1.78520754          -0.19544332          -0.43211165         
O                     0.64160000           0.00460000           1.06550000         
O                     2.34750000          -0.63390000           0.43920000         
O                    -2.86297319           0.14951754          -0.81313783         
H                     3.12737027          -1.17897547           0.62599353         
H                     1.65350000           0.31410000          -0.46860000         
H                     0.59352502           1.73897735          -0.00123979         
H                    -1.63552220          -0.80882773           0.47409818         
H                    -0.12704616          -0.78621115          -1.56630414         
H                    -0.63362971           0.89189731          -1.89175586         
