12
xtb energy = -21.468846113448
C                    -1.11387386           1.03357393           0.42415844         
C                     0.32630000           1.08660000           0.00810000         
C                     1.36520000           0.30410000           0.55930000         
O                    -1.96321860           0.28980002          -0.43437988         
O                    -1.69255934          -1.10091369          -0.30715026         
O                     2.52140000           0.76080000           0.22610000         
H                    -2.57533109          -1.48695407          -0.23023813         
H                    -1.56599762           2.03008445           0.37615235         
H                    -1.19332634           0.64645113           1.44698197         
H                     1.26594451          -0.55258639           1.21010118         
H                     1.71260000           1.70550000          -0.15900000         
H                     0.48981326           1.53555592          -0.97254348         
