12
xtb energy = -21.472329738132
C                     0.47644360           1.24790697          -0.20289074         
C                    -0.98527419           0.81228888           0.00897466         
C                    -0.95930000          -0.41100000           0.85780000         
O                     1.30432382           0.11159624          -0.24458696         
O                     0.83820000          -0.88010000           0.65070000         
O                    -1.36880343          -0.72405544           1.91003780         
H                    -0.03380000          -1.48650000          -0.10410000         
H                     0.61296308           1.72982356          -1.17529786         
H                     0.77918933           1.93600019           0.59531751         
H                    -0.98060000          -1.54710000          -0.24970000         
H                    -1.47448193           0.59875668          -0.94007006         
H                    -1.55224228           1.57749931           0.54071831         
