  24
        -43.32539964
 C          0.3779722375       -0.1774579308       -0.0250695883
 C         -0.8167485412        0.8084041659       -0.0940979429
 C          1.5760407808        0.4526285245        0.7072866785
 C         -2.0791042110        0.0156503939       -0.5146611835
 C          2.7920127904       -0.4918030300        0.6545035567
 C         -2.4351110383       -0.9744221356        0.5725568874
 O         -0.0324639878       -1.3868774345        0.5701946700
 O         -0.5640613430        1.8689609700       -0.9778788112
 O          1.9837592380        1.6573022626        0.1076805854
 O         -1.9072044331       -0.5785645795       -1.7726869757
 O          3.2818847208       -0.5940067660       -0.6523934120
 O         -2.5792238939       -0.6857760100        1.7295313435
 H         -0.0473523790       -1.2854994714        1.5303530388
 H         -0.6897299002        1.5407735173       -1.8796203736
 H          1.2030338529        2.1443656889       -0.1979976816
 H         -1.3628262241       -1.3695700079       -1.6671377220
 H          3.4054324088        0.3116289052       -0.9695188631
 H          0.6985014947       -0.4316789297       -1.0439821986
 H         -0.9956835649        1.2523365688        0.8919731788
 H          1.2895441324        0.6227586294        1.7614613557
 H         -2.9045945142        0.7305363492       -0.6196427241
 H          3.5644819352       -0.1035401396        1.3319804585
 H          2.5067420324       -1.4974180264        0.9685267620
 H         -2.5969520960       -2.0024094388        0.1989105253
24

C                     0.37823000          -0.06666000          -0.15148000         
C                    -0.77524000           0.93600000          -0.20476000         
C                     1.57974000           0.48173000           0.63458000         
C                    -1.96386000           0.01726000          -0.42106000         
C                     2.72157000          -0.53709000           0.72197000         
C                    -1.58441000          -1.14406000           0.50295000         
O                    -0.15886000          -1.27249000           0.43011000         
O                    -0.59866000           1.89401000          -1.24164000         
O                     2.11265000           1.66066000           0.00502000         
O                    -2.01674000          -0.36012000          -1.80794000         
O                     3.28863000          -0.74532000          -0.57325000         
O                    -1.92110000          -0.84156000           1.84284000         
H                    -1.77845000          -1.66852000           2.33502000         
H                    -1.10090000           1.55238000          -2.01158000         
H                     1.36307000           2.18902000          -0.33905000         
H                    -1.38595000          -1.09128000          -1.95092000         
H                     3.46359000           0.15610000          -0.91154000         
H                     0.70219000          -0.30282000          -1.17380000         
H                    -0.87645000           1.46861000           0.74833000         
H                     1.27136000           0.74300000           1.65341000         
H                    -2.91223000           0.49737000          -0.16437000         
H                     3.52262000          -0.15367000           1.36274000         
H                     2.38922000          -1.49912000           1.12191000         
H                    -2.05182000          -2.08716000           0.20290000         
