  24
        -43.32554077
 C          0.3968659572       -0.2557915053        0.1246350198
 C         -0.9200686565        0.5549138645        0.1381778589
 C          1.5912051534        0.7037558293        0.2280621468
 C         -2.1681890272       -0.2983329228        0.4889224272
 C          2.9197228129       -0.0501388143        0.0868158868
 C         -2.2254105490       -1.5268523281       -0.3902666471
 O          0.4909741304       -1.1614865061        1.1898974940
 O         -1.1738218549        1.1233975276       -1.1238176333
 O          1.4993977452        1.6922159495       -0.7765665087
 O         -3.3248372540        0.4760497320        0.3698231821
 O          3.9952825562        0.8607377602        0.0700936454
 O         -1.4887795655       -2.4723703756       -0.2867695297
 H         -0.0654471011       -1.9285125798        0.9714207470
 H         -0.3741321374        1.6048479370       -1.3823370039
 H          2.4086902018        1.9468593079       -0.9952802890
 H         -3.2258163281        1.0166837037       -0.4271472136
 H          4.1109150024        1.2271338514        0.9541948850
 H          0.4546915345       -0.7752657933       -0.8439610260
 H         -0.8494561876        1.3458434376        0.9020808694
 H          1.5562550057        1.1844745614        1.2205351011
 H         -2.0911090107       -0.6162993076        1.5353690776
 H          3.0130445632       -0.7897964465        0.8866225150
 H          2.9478513041       -0.5589676302       -0.8798924619
 H         -3.0204177524       -1.4915549181       -1.1543296004
24

C                     0.31713000          -0.21031000           0.03598000         
C                    -1.04711000           0.53204000           0.08493000         
C                     1.52132000           0.73898000           0.19968000         
C                    -2.29867000          -0.28725000          -0.19424000         
C                     2.85891000          -0.00207000           0.08220000         
C                    -2.51532000          -1.60899000          -0.13080000         
O                     0.38040000          -1.21594000           1.06497000         
O                    -1.12091000           1.63016000          -0.84527000         
O                     1.48532000           1.77727000          -0.79041000         
O                    -3.36636000           0.49663000          -0.63986000         
O                     3.91116000           0.96538000           0.15824000         
O                    -1.66368000          -2.60659000           0.24472000         
H                    -0.80506000          -2.23523000           0.53041000         
H                    -0.19974000           1.92532000          -1.02408000         
H                     2.41643000           2.08072000          -0.87822000         
H                    -2.94677000           1.34308000          -0.91541000         
H                     4.15674000           1.05750000           1.09643000         
H                     0.40297000          -0.71288000          -0.93581000         
H                    -1.16972000           0.96759000           1.08457000         
H                     1.48166000           1.23441000           1.17724000         
H                     0.19263000          -0.78311000           1.92154000         
H                     2.99696000          -0.74889000           0.87002000         
H                     2.94675000          -0.49134000          -0.89281000         
H                    -3.47742000          -2.03518000          -0.39784000         
