  24
        -43.32338020
 C          0.2153803138        0.6618326898        0.5955747739
 C         -1.1855780395        0.0327887137        0.7617542753
 C          1.2239427968       -0.2599232587       -0.1271974244
 C         -1.8143813475       -0.3916849582       -0.5886793552
 C          2.5563169358        0.4829535489       -0.3593465294
 C         -1.1370468828       -1.6143421969       -1.1633911182
 O          0.0647831302        1.8926111440       -0.0933041619
 O         -2.0242818808        0.9124582672        1.4519600696
 O          1.4968497816       -1.4029750926        0.6357885426
 O         -1.9124504665        0.6435957132       -1.5291443297
 O          2.9785172868        1.1927376722        0.7746946261
 O         -0.7299419366       -2.5464027200       -0.5147252861
 H          0.8717371875        2.4045516594        0.0333687602
 H         -2.0670188967        1.7374334965        0.9488234850
 H          0.8047759749       -2.0688414662        0.4945722526
 H         -1.1798445534        1.2632519839       -1.3844274518
 H          3.1389186530        0.5523711948        1.4780946550
 H          0.5946254516        0.8483366708        1.6096283598
 H         -1.1006099168       -0.8604553633        1.3890238189
 H          0.8229977408       -0.5286651301       -1.1197533438
 H         -2.8466466608       -0.7113711093       -0.3669487736
 H          3.3029415765       -0.2598246436       -0.6643597706
 H          2.4435694760        1.2161443059       -1.1612612787
 H         -1.0923622340       -1.6081184831       -2.2675331438
24

C                     0.30746000           0.75796000           0.64517000         
C                    -1.03310000           0.00754000           0.81015000         
C                     1.49007000          -0.19083000           0.41381000         
C                    -1.74334000          -0.40588000          -0.50152000         
C                     2.79429000           0.45065000          -0.03641000         
C                    -0.96959000          -1.37477000          -1.39898000         
O                     0.19915000           1.73885000          -0.39230000         
O                    -1.92879000           0.90310000           1.51294000         
O                     1.40560000          -1.41066000           0.57336000         
O                    -2.10106000           0.77332000          -1.24455000         
O                     3.17663000           1.51856000           0.81093000         
O                    -0.64728000          -2.58543000          -0.73001000         
H                     0.86142000           2.43010000          -0.18436000         
H                    -2.38659000           1.41966000           0.81784000         
H                     0.15614000          -2.43062000          -0.18879000         
H                    -1.29107000           1.32565000          -1.30364000         
H                     3.60808000           1.12526000           1.59279000         
H                     0.51526000           1.29728000           1.57845000         
H                    -0.90609000          -0.86452000           1.46035000         
H                    -0.05813000          -0.92177000          -1.80314000         
H                    -2.69279000          -0.87927000          -0.22251000         
H                     3.59059000          -0.29986000          -0.05391000         
H                     2.66328000           0.83300000          -1.05300000         
H                    -1.58503000          -1.62882000          -2.26925000         
