  48
        -65.77547275
 Si         0.5365062244        2.8449792983        0.4411968567
 C          0.3955314347        2.2646908445        2.2514017609
 H          0.4506019406        3.1090656356        2.9312337586
 H          1.2008671981        1.5857529568        2.5140748730
 H         -0.5446949805        1.7547398757        2.4437802795
 C          2.2769450389        3.5178648844        0.0865175354
 H          3.0145240593        2.7408942777        0.2675616822
 H          2.5233139304        4.3638389701        0.7194637632
 H          2.3795997204        3.8366761956       -0.9471957380
 C         -0.8435651641        4.0985067950        0.0586865273
 O          0.1588170849        1.6231403246       -0.6015073866
 H         -0.7812233836        4.4649452236       -0.9609099063
 H         -0.7750150306        4.9541538951        0.7212862013
 H         -1.8289993909        3.6619285563        0.1886525005
 C          0.8812546799        0.6655497820       -1.2256194381
 C          1.3833772363        0.8406342677       -2.4393172468
 H          1.2566192882        1.7740440802       -2.9559500513
 H          1.9382439519        0.0660474181       -2.9333392184
 C          1.0503751224       -0.5918915344       -0.4475089478
 C          1.9147573661       -0.4963049684        0.7726383260
 O          1.4755768771       -1.3435416325        1.7149148260
 C          0.9416983116       -1.9519819881       -1.1098442186
 C         -1.5125353573       -1.2903852584       -0.3032785627
 C         -2.1738247950       -1.8574136239       -1.3058494744
 C         -2.1622957916       -0.3278294147        0.6522324311
 O          2.8397746549        0.2478481633        0.9443499941
 C         -3.6192503058       -1.6082765977       -1.5994134359
 C         -3.6831610586       -0.4202751279        0.5904300866
 H         -1.8400445701        0.6828852669        0.3856795539
 H         -1.8104936563       -0.5207909332        1.6689866581
 C         -4.1361888522       -0.3754401035       -0.8640117910
 H         -4.1960046112       -2.4906435032       -1.3000452233
 H         -3.7541320971       -1.4910197750       -2.6776969420
 H         -4.1268541613        0.4021668578        1.1542495386
 H         -4.0143286677       -1.3579294663        1.0428478555
 H         -5.2250648029       -0.3328037172       -0.9261612145
 H         -3.7330010895        0.5231159177       -1.3347284539
 C          1.7957906435       -3.0932493964       -0.5847913019
 C         -0.0731078087       -1.5464220002       -0.0837307008
 H          0.6945512145       -1.9378851756       -2.1609779980
 C          0.4515731325       -2.1961775180        1.2040924544
 C          1.1034246600       -3.4971934718        0.7267982202
 H          0.3245118043       -4.2360203825        0.5379161314
 H          1.7960099088       -3.8887570484        1.4697394080
 H          2.8209526684       -2.7670807522       -0.3988821945
 H          1.8267688964       -3.9188979787       -1.2942688689
 H         -0.2879495547       -2.3387705649        1.9928060796
 H         -1.6708377887       -2.5555647539       -1.9612775894
48

Si                    0.88128000           2.83330000           0.04989000         
C                     0.36614000           2.16048000           1.72387000         
H                    -0.00335000           2.96841000           2.36262000         
H                     1.21081000           1.68963000           2.23389000         
H                    -0.43053000           1.42201000           1.61800000         
C                     2.31577000           4.03294000           0.34094000         
H                     3.17337000           3.50219000           0.76439000         
H                     2.01790000           4.82400000           1.03512000         
H                     2.62280000           4.49384000          -0.60225000         
C                    -0.54766000           3.85085000          -0.64075000         
O                     1.37638000           1.64597000          -1.02720000         
H                    -0.33563000           4.16063000          -1.66808000         
H                    -0.70002000           4.74921000          -0.03488000         
H                    -1.47965000           3.27965000          -0.63348000         
C                     0.80067000           0.38456000          -1.13754000         
C                    -0.58329000           0.33438000          -1.81799000         
H                    -1.12780000           1.24288000          -1.54645000         
H                    -0.42740000           0.39735000          -2.90295000         
C                     1.45209000          -0.71979000          -0.68520000         
C                     2.19021000          -0.57056000           0.59890000         
O                     1.53682000          -1.18608000           1.64758000         
C                     0.90091000          -2.10205000          -0.84612000         
C                    -1.38914000          -1.45746000          -0.10903000         
C                    -1.56166000          -0.87099000          -1.51982000         
C                    -2.37524000          -1.09953000           0.96963000         
O                     3.22756000           0.05815000           0.73560000         
C                    -3.01743000          -0.52355000          -1.88541000         
C                    -3.79506000          -0.89015000           0.45707000         
H                    -2.04300000          -0.17258000           1.45037000         
H                    -2.39344000          -1.87427000           1.74508000         
C                    -3.81468000           0.06510000          -0.72948000         
H                    -3.52199000          -1.44255000          -2.21445000         
H                    -3.04481000           0.15918000          -2.74308000         
H                    -4.41807000          -0.48778000           1.26414000         
H                    -4.23275000          -1.85363000           0.16689000         
H                    -4.84979000           0.23235000          -1.04808000         
H                    -3.40387000           1.03957000          -0.44022000         
C                     1.77064000          -3.27418000          -0.35011000         
C                    -0.19649000          -2.02621000           0.16359000         
H                     0.61300000          -2.30298000          -1.88071000         
C                     0.54609000          -2.26239000           1.44519000         
C                     1.34499000          -3.51206000           1.10520000         
H                     0.71828000          -4.40935000           1.17186000         
H                     2.21947000          -3.64652000           1.74996000         
H                     2.84204000          -3.05914000          -0.43306000         
H                     1.57602000          -4.17921000          -0.93807000         
H                    -0.06919000          -2.35517000           2.34195000         
H                    -1.30165000          -1.65765000          -2.24211000         
