  47
        -63.09259117
 C          2.6488559908       -4.1478829440        0.4030716061
 C          1.2205337615       -3.6872315940        0.0765804194
 C          0.7371305638       -2.5370172491        0.9687493334
 H          0.5339561120       -4.5295873247        0.1789968387
 H          1.1891327175       -3.3691815976       -0.9668175167
 C         -0.2839460795       -1.6966594152        0.2832773991
 H          1.5843750208       -1.9103156207        1.2493426904
 H          0.3132154642       -2.9434102995        1.8930024777
 C          2.8231071129       -5.6289087138        0.0713852005
 H          2.1413651565       -6.2361049346        0.6625841792
 H          3.8392834286       -5.9547266138        0.2824947280
 H          2.6177060186       -5.8079514722       -0.9818887753
 C          3.6875615930       -3.3270869674       -0.3898332965
 H          2.8332885984       -4.0093465775        1.4739837760
 C          3.6452121124       -1.8701375578       -0.0776519431
 H          3.5074399931       -3.4811132391       -1.4559752549
 H          4.6824296022       -3.7140265080       -0.1527506081
 C          3.1035587701       -0.9420371054       -0.8725674426
 C          3.0143645095        0.4493922784       -0.5318030355
 C         -0.5472577428       -0.4048243043        0.5305566571
 C         -1.5096654283        0.2535464152       -0.3710390980
 C          0.1093375714        0.3813310009        1.6240206892
 H          0.4696318250       -0.2861430327        2.4013204736
 H         -0.5944200696        1.0771632881        2.0727747289
 H          0.9577317798        0.9447518474        1.2357192646
 O         -2.2455596392       -0.3535784581       -1.1150799404
 C         -1.5318948514        1.7895969544       -0.3714155189
 C         -2.5921462285        2.2429741555        0.5894713708
 H         -1.7984670222        2.1151769980       -1.3773255078
 H         -0.5629327917        2.1888133880       -0.0762190589
 S         -4.0705627435        2.7316882778       -0.2431179213
 C         -5.1401104508        3.1286270317        1.1642831888
 H         -5.4695930512        4.1582529751        1.0713550681
 H         -4.5427707448        2.9908812491        2.0629629006
 H         -5.9908276769        2.4547915241        1.1575502439
 O         -2.4983498882        2.2676577488        1.7894775713
 C          2.3191433655        1.3519483790       -1.2454956366
 C          2.1895812573        2.7359362694       -0.8753006858
 C          1.4505627627        3.6170118211       -1.5478506188
 H         -0.8396210804       -2.1725554277       -0.5148712215
 H          2.7289579336        3.0481879250        0.0110299288
 H          0.9038001298        3.3325888333       -2.4319556266
 H          1.3684451190        4.6456052783       -1.2424546650
 H          3.5226327565        0.7606261735        0.3734719782
 H          1.7997455216        1.0392638737       -2.1422886126
 H          4.0704235459       -1.5764821232        0.8747569825
 H          2.6678243267       -1.2330444867       -1.8197010750
47

C                     1.94914000          -3.58748000           0.43847000         
C                     0.88604000          -3.52355000          -0.66429000         
C                     0.08033000          -2.22081000          -0.78618000         
H                     0.17307000          -4.36915000          -0.51762000         
H                     1.37495000          -3.69936000          -1.64722000         
C                     0.63398000          -0.71867000          -0.72245000         
H                    -0.65008000          -2.30780000           0.04396000         
H                    -0.52545000          -2.35743000          -1.70957000         
C                     2.68680000          -4.94420000           0.31972000         
H                     2.00287000          -5.78744000           0.54924000         
H                     3.54166000          -4.99835000           1.02972000         
H                     3.09541000          -5.09391000          -0.70577000         
C                     2.91724000          -2.47065000           0.14399000         
H                     1.55479000          -3.49868000           1.47415000         
C                     2.55551000          -1.03775000           0.67002000         
H                     3.10298000          -2.50266000          -0.96037000         
H                     3.92479000          -2.71621000           0.56301000         
C                     3.47367000          -0.24142000          -0.19887000         
C                     3.04775000           0.13296000          -1.39665000         
C                     1.02699000          -0.34871000           0.79759000         
C                    -0.46649000           0.15648000           1.01328000         
C                     1.18313000          -0.12358000           2.38429000         
H                     1.29945000          -1.10896000           2.89260000         
H                     0.43999000           0.39377000           3.05768000         
H                     2.05938000           0.53393000           2.57716000         
O                    -1.28745000          -0.58223000           1.55225000         
C                    -0.92051000           1.58168000           0.63902000         
C                    -2.30541000           1.91720000           1.13332000         
H                    -0.92292000           1.73206000          -0.45656000         
H                    -0.22274000           2.31765000           1.09233000         
S                    -3.60161000           2.39396000          -0.04346000         
C                    -4.87119000           3.03279000           1.11725000         
H                    -5.19570000           4.04048000           0.78471000         
H                    -4.50010000           3.16041000           2.15184000         
H                    -5.73696000           2.33864000           1.13833000         
O                    -2.53151000           1.87082000           2.33182000         
C                     1.58437000           0.07458000          -1.73516000         
C                     1.30872000           1.56493000          -1.56245000         
C                     0.89818000           2.41224000          -2.50224000         
H                    -0.31437000          -0.29129000          -1.15844000         
H                     1.49187000           1.99052000          -0.57432000         
H                     0.70442000           2.09882000          -3.51649000         
H                     0.76555000           3.45694000          -2.22314000         
H                     3.73306000           0.65640000          -2.06059000         
H                     1.40372000          -0.25865000          -2.78111000         
H                     3.10362000          -1.09660000           1.64203000         
H                     4.51114000          -0.08503000           0.08405000         
