  12
        -21.56673796
 C         -0.7777865937       -0.8730352630       -0.5129858629
 C          0.3854905679       -1.1743620982        0.4495902727
 C          1.3136964994        0.0146680646        0.4884192162
 O         -1.6695373439        0.0833475034       -0.0163126192
 O         -1.0253330771        1.3577385286        0.0273057898
 O          2.0932400241        0.2818037338       -0.3811777444
 H         -1.7736693184        1.9686776919        0.0532446359
 H         -0.3766700388       -0.5587875942       -1.4844266479
 H         -1.4100229434       -1.7554680927       -0.6380013246
 H          1.2140884122        0.6510980884        1.3853489755
 H          0.9252732219       -2.0357304987        0.0549359550
 H         -0.0089186867       -1.3951898694        1.4402609400
12

C                    -0.87810208          -1.15927512          -0.61661738         
C                     0.44354147          -1.34618123           0.11751570         
C                     0.98357131          -0.02160918          -0.15550007         
O                    -1.15941665           0.22752139          -0.62491785         
O                     0.01880841           0.78491574          -0.60515907         
O                     2.10535298           0.36206230           0.13281881         
H                    -1.04376817           2.41324544           1.60175558         
H                    -0.75405672          -1.46282739          -1.68104405         
H                    -1.68826465          -1.76671832          -0.16090691         
H                    -0.47352517           2.16181705           1.93776193         
H                     1.01678777          -2.20188670          -0.29833973         
H                     0.31892222          -1.42630378           1.21883461         
