  12
        -21.56739222
 C         -0.5961468931       -0.9960424990        0.5736939341
 C          0.5704731697       -1.1248877787       -0.4127851529
 C          1.2990196701        0.1976603058       -0.4754569350
 O         -1.6199646299       -0.1750947475        0.0637622380
 O         -1.1118886875        1.0891095769       -0.3016622464
 O          1.7542117459        0.7557089340        0.4843638952
 H         -1.1889353927        1.6401217638        0.4937625399
 H         -1.0998060023       -1.9509209682        0.7338352901
 H         -0.2206690510       -0.6055757737        1.5304599798
 H          1.3983558109        0.6259026881       -1.4880058175
 H          0.1977244213       -1.4105893287       -1.3946982164
 H          1.2581267166       -1.8847928789       -0.0392950744
12

C                    -0.74506000          -1.23356000           0.53584000         
C                     0.48631000          -1.06256000          -0.30220000         
C                     0.47438000           0.42497000          -0.49836000         
O                    -1.68741000          -0.31058000          -0.01026000         
O                    -0.90058000           0.77816000          -0.62555000         
O                     1.03774000           1.06560000           0.63425000         
H                     0.94594000           2.01636000           0.45222000         
H                    -1.15009000          -2.24726000           0.47602000         
H                    -0.57390000          -0.98007000           1.58727000         
H                     1.02741000           0.72673000          -1.39290000         
H                     0.33896000          -1.56342000          -1.26594000         
H                     1.38678000          -1.45377000           0.17761000         
