  12
        -21.56709222
 C         -0.9445152960       -0.9147398127       -0.0239613095
 C          0.4531821216       -0.7956981024       -0.6377559081
 C          1.4906108582       -0.4268136365        0.3861616427
 O         -1.3961323633        0.2807587395        0.5533911739
 O         -1.6552457796        1.2349399076       -0.4788554259
 O          2.4137454589        0.3115734912        0.2003819081
 H         -1.6983470507        2.0639231426        0.0143921267
 H         -1.6589460386       -1.2554065854       -0.7831331996
 H         -0.9482506337       -1.6104521714        0.8197213656
 H          1.3350150362       -0.9166151988        1.3685878552
 H          0.4502588057       -0.0548794294       -1.4392240908
 H          0.7337991036       -1.7633585881       -1.0606293409
12

C                    -1.35838194          -0.98634151          -0.04706749         
C                     0.11045388          -0.77122823          -0.35358136         
C                     3.59299840          -0.58155525           0.61478495         
O                    -1.90157283           0.16508831           0.59852067         
O                    -2.12671913           1.15049558          -0.45041509         
O                     3.67974588           0.54218126           0.28011142         
H                    -1.47901294           1.80270929          -0.12600448         
H                    -1.92808796          -1.21806485          -0.95355902         
H                    -1.46971915          -1.82880616           0.64272765         
H                     0.64555229          -0.46367778           0.54997959         
H                     0.24400895           0.02726655          -1.09061322         
H                     0.56590877          -1.68483546          -0.74580682         
