  12
        -21.56449202
 C         -0.6062149937        0.2160651534       -0.1743418545
 C          0.7733098918       -0.2787029387        0.2463120731
 C          1.8513254552        0.7348607858       -0.0089673569
 O         -1.5307613674       -0.7146715229        0.3369197561
 O         -2.8452709667       -0.3035100199       -0.0371990352
 O          2.9602385698        0.4808015406       -0.3785408536
 H         -3.3815674902       -1.0543713710        0.2484443320
 H         -0.8116789626        1.2109583266        0.2438751383
 H         -0.6936264060        0.2684117704       -1.2670617217
 H          1.5385666729        1.7774554511        0.1982934314
 H          1.0166488174       -1.2196009575       -0.2485025980
 H          0.7527347462       -0.4632707719        1.3253457605
12

C                    -0.85784000           0.35643000           0.09872000         
C                     0.55579000          -0.10398000           0.26386000         
C                     1.59519000           0.50779000          -0.31651000         
O                    -1.72010000          -0.74181000           0.40754000         
O                    -3.07634000          -0.21330000           0.33822000         
O                     2.89549000           0.11316000          -0.18175000         
H                    -3.40627000          -0.85283000          -0.31860000         
H                    -1.06602000           1.17816000           0.79189000         
H                    -1.05329000           0.67652000          -0.93063000         
H                     1.51716000           1.38817000          -0.94308000         
H                     2.92699000          -0.68072000           0.38039000         
H                     0.71275000          -0.97308000           0.89445000         
