13
Image 1 energy:-0.00123 
C                    -2.19425000           0.15064000           0.00000000         
C                    -1.12991000          -0.67076000           0.00000000         
C                     1.05286000           0.79887000          -0.00000000         
C                     2.09778000          -0.26638000           0.00000000         
H                    -2.63848000           0.51570000          -0.92794000         
H                    -2.63848000           0.51570000           0.92794000         
H                    -0.70759000          -1.06366000          -0.92511000         
H                    -0.70759000          -1.06366000           0.92511000         
H                     0.79131000           1.30911000           0.92571000         
H                     0.79131000           1.30911000          -0.92571000         
H                     2.02484000          -0.91107000          -0.89041000         
H                     2.02484000          -0.91107000           0.89041000         
H                     3.12587000           0.15263000           0.00000000         
13
Image 2 energy:-0.00069 
C                    -2.17396000           0.15615000           0.00000000         
C                    -1.09944000          -0.65499000          -0.00000000         
C                     1.01561000           0.77627000          -0.00000000         
C                     2.08360000          -0.26639000           0.00000000         
H                    -2.61875000           0.51976000          -0.92810000         
H                    -2.61875000           0.51976000           0.92810000         
H                    -0.68354000          -1.05636000          -0.92518000         
H                    -0.68354000          -1.05636000           0.92518000         
H                     0.76367000           1.29493000           0.92442000         
H                     0.76367000           1.29493000          -0.92442000         
H                     2.02499000          -0.91252000          -0.89041000         
H                     2.02499000          -0.91252000           0.89041000         
H                     3.10126000           0.17701000           0.00000000         
13
Image 3 energy:-0.00022 
C                    -2.15805000           0.16031000           0.00000000         
C                    -1.06582000          -0.63557000           0.00000000         
C                     0.97851000           0.75235000           0.00000000         
C                     2.07096000          -0.26669000           0.00000000         
H                    -2.60394000           0.52187000          -0.92821000         
H                    -2.60394000           0.52187000           0.92821000         
H                    -0.66608000          -1.05439000          -0.92478000         
H                    -0.66608000          -1.05439000           0.92478000         
H                     0.74319000           1.28354000           0.92221000         
H                     0.74319000           1.28354000          -0.92221000         
H                     2.02674000          -0.91373000          -0.89036000         
H                     2.02674000          -0.91373000           0.89036000         
H                     3.07660000           0.20159000           0.00000000         
13
Image 4 energy:0.00000 
C                    -2.14587000           0.16371000           0.00000000         
C                    -1.02952000          -0.61394000           0.00000000         
C                     0.94160000           0.72790000           0.00000000         
C                     2.05985000          -0.26718000           0.00000000         
H                    -2.59306000           0.52310000          -0.92829000         
H                    -2.59306000           0.52310000           0.92829000         
H                    -0.65529000          -1.05762000          -0.92360000         
H                    -0.65529000          -1.05762000           0.92360000         
H                     0.72809000           1.27432000           0.91922000         
H                     0.72809000           1.27432000          -0.91922000         
H                     2.02934000          -0.91485000          -0.89022000         
H                     2.02934000          -0.91485000           0.89022000         
H                     3.05296000           0.22516000           0.00000000         
13
Image 5 energy:-0.00037 
C                    -2.13370000           0.16711000           0.00000000         
C                    -0.99322000          -0.59231000           0.00000000         
C                     0.90468000           0.70345000           0.00000000         
C                     2.04873000          -0.26766000           0.00000000         
H                    -2.58218000           0.52432000          -0.92836000         
H                    -2.58218000           0.52432000           0.92836000         
H                    -0.64450000          -1.06085000          -0.92243000         
H                    -0.64450000          -1.06085000           0.92242000         
H                     0.71299000           1.26510000           0.91623000         
H                     0.71299000           1.26510000          -0.91623000         
H                     2.03193000          -0.91598000          -0.89008000         
H                     2.03193000          -0.91598000           0.89008000         
H                     3.02933000           0.24874000          -0.00000000         
13
Image 6 energy:-0.00181 
C                    -2.12431000           0.17029000           0.00000000         
C                    -0.95520000          -0.56997000          -0.00000000         
C                     0.86841000           0.67922000          -0.00000000         
C                     2.03877000          -0.26822000           0.00000000         
H                    -2.57340000           0.52597000          -0.92849000         
H                    -2.57341000           0.52597000           0.92849000         
H                    -0.63964000          -1.06937000          -0.92047000         
H                    -0.63964000          -1.06938000           0.92047000         
H                     0.70106000           1.25721000           0.91268000         
H                     0.70106000           1.25721000          -0.91268000         
H                     2.03479000          -0.91692000          -0.88985000         
H                     2.03479000          -0.91692000           0.88985000         
H                     3.00628000           0.27140000          -0.00000000         
13
Image 7 energy:-0.00475 
C                    -2.11811000           0.17373000           0.00000000         
C                    -0.91495000          -0.54771000          -0.00000000         
C                     0.83293000           0.65565000          -0.00000000         
C                     2.03007000          -0.26891000           0.00000000         
H                    -2.56727000           0.52812000          -0.92874000         
H                    -2.56727000           0.52812000           0.92874000         
H                    -0.64074000          -1.08212000          -0.91692000         
H                    -0.64074000          -1.08212000           0.91692000         
H                     0.69101000           1.24972000           0.90844000         
H                     0.69101000           1.24972000          -0.90844000         
H                     2.03742000          -0.91771000          -0.88948000         
H                     2.03742000          -0.91771000           0.88948000         
H                     2.98402000           0.29200000          -0.00000000         
13
Image 8 energy:-0.00915 
C                    -2.11310000           0.17753000           0.00000000         
C                    -0.87369000          -0.52596000          -0.00000000         
C                     0.79767000           0.63220000          -0.00000000         
C                     2.02177000          -0.26965000           0.00000000         
H                    -2.56304000           0.52973000          -0.92907000         
H                    -2.56304000           0.52973000           0.92907000         
H                    -0.64237000          -1.09222000          -0.91165000         
H                    -0.64237000          -1.09222000           0.91165000         
H                     0.68063000           1.24139000           0.90387000         
H                     0.68063000           1.24139000          -0.90387000         
H                     2.03997000          -0.91854000          -0.88908000         
H                     2.03997000          -0.91854000           0.88908000         
H                     2.96231000           0.31117000          -0.00000000         
13
Image 9 energy:-0.01472 
C                    -2.10724000           0.18159000           0.00000000         
C                    -0.83251000          -0.50447000          -0.00000000         
C                     0.76252000           0.60873000          -0.00000000         
C                     2.01291000          -0.27041000           0.00000000         
H                    -2.55938000           0.53014000          -0.92942000         
H                    -2.55938000           0.53014000           0.92942000         
H                    -0.64189000          -1.09844000          -0.90530000         
H                    -0.64189000          -1.09844000           0.90530000         
H                     0.66734000           1.23087000           0.89925000         
H                     0.66734000           1.23087000          -0.89925000         
H                     2.04228000          -0.91934000          -0.88871000         
H                     2.04228000          -0.91934000           0.88871000         
H                     2.93991000           0.32980000          -0.00000000         
13
Image 10 energy:-0.02138 
C                    -2.09967000           0.18543000           0.00000000         
C                    -0.79269000          -0.48270000          -0.00000000         
C                     0.72706000           0.58455000          -0.00000000         
C                     2.00364000          -0.27107000           0.00000000         
H                    -2.55546000           0.52883000          -0.92973000         
H                    -2.55546000           0.52883000           0.92973000         
H                    -0.63656000          -1.09799000          -0.89848000         
H                    -0.63656000          -1.09799000           0.89848000         
H                     0.65174000           1.21863000           0.89453000         
H                     0.65174000           1.21863000          -0.89453000         
H                     2.04416000          -0.91987000          -0.88836000         
H                     2.04416000          -0.91987000           0.88836000         
H                     2.91699000           0.34779000          -0.00000000         
13
Image 11 energy:-0.02829 
C                    -2.08969000           0.18916000           0.00000000         
C                    -0.75423000          -0.46080000          -0.00000000         
C                     0.69166000           0.56037000          -0.00000000         
C                     1.99321000          -0.27172000           0.00000000         
H                    -2.55043000           0.52590000          -0.92997000         
H                    -2.55043000           0.52590000           0.92997000         
H                    -0.62785000          -1.09443000          -0.89226000         
H                    -0.62785000          -1.09443000           0.89226000         
H                     0.63336000           1.20449000           0.88979000         
H                     0.63336000           1.20449000          -0.88979000         
H                     2.04555000          -0.92017000          -0.88813000         
H                     2.04555000          -0.92017000           0.88813000         
H                     2.89250000           0.36592000          -0.00000000         
13
Image 12 energy:-0.03431 
C                    -2.07539000           0.19364000           0.00000000         
C                    -0.71771000          -0.44079000          -0.00000000         
C                     0.65669000           0.53697000          -0.00000000         
C                     1.97980000          -0.27247000           0.00000000         
H                    -2.54257000           0.52123000          -0.93029000         
H                    -2.54257000           0.52123000           0.93029000         
H                    -0.61298000          -1.08634000          -0.88638000         
H                    -0.61298000          -1.08634000           0.88638000         
H                     0.61074000           1.18864000           0.88559000         
H                     0.61074000           1.18864000          -0.88559000         
H                     2.04570000          -0.92005000          -0.88810000         
H                     2.04570000          -0.92005000           0.88810000         
H                     2.86306000           0.38645000          -0.00000000         
13
Image 13 energy:-0.03843 
C                    -2.05374000           0.19992000           0.00000000         
C                    -0.68344000          -0.42587000          -0.00000000         
C                     0.62268000           0.51676000          -0.00000000         
C                     1.96085000          -0.27262000           0.00000000         
H                    -2.52834000           0.51543000          -0.93080000         
H                    -2.52834000           0.51543000           0.93080000         
H                    -0.59698000          -1.08328000          -0.88257000         
H                    -0.59698000          -1.08328000           0.88257000         
H                     0.58562000           1.17456000           0.88243000         
H                     0.58562000           1.17456000          -0.88243000         
H                     2.04084000          -0.91840000          -0.88835000         
H                     2.04084000          -0.91840000           0.88835000         
H                     2.82722000           0.40688000          -0.00000000         
13
Image 14 energy:-0.03998 
C                    -2.01924000           0.21105000           0.00000000         
C                    -0.66567000          -0.43115000           0.00000000         
C                     0.60151000           0.50959000          -0.00000000         
C                     1.93399000          -0.27172000           0.00000000         
H                    -2.49657000           0.51314000          -0.93280000         
H                    -2.49657000           0.51314000           0.93280000         
H                    -0.56220000          -1.07205000          -0.87875000         
H                    -0.56220000          -1.07205000           0.87875000         
H                     0.53457000           1.15131000           0.88236000         
H                     0.53457000           1.15131000          -0.88236000         
H                     2.02379000          -0.91429000          -0.88933000         
H                     2.02379000          -0.91429000           0.88933000         
H                     2.77982000           0.43228000          -0.00000000         
13
Image 15 energy:-0.04047 
C                    -1.99251000           0.21786000           0.00000000         
C                    -0.64425000          -0.44159000          -0.00000000         
C                     0.57457000           0.50763000           0.00000000         
C                     1.91277000          -0.26631000           0.00000000         
H                    -2.45886000           0.53073000          -0.93331000         
H                    -2.45886000           0.53073000           0.93331000         
H                    -0.57949000          -1.12203000          -0.88287000         
H                    -0.57949000          -1.12203000           0.88287000         
H                     0.55246000           1.18398000           0.88104000         
H                     0.55246000           1.18398000          -0.88104000         
H                     1.99329000          -0.90843000          -0.88888000         
H                     1.99329000          -0.90843000           0.88888000         
H                     2.76424000           0.42209000          -0.00000000         
13
Image 16 energy:-0.04102 
C                    -1.96978000           0.22545000           0.00000000         
C                    -0.65943000          -0.47203000          -0.00000000         
C                     0.58092000           0.51844000           0.00000000         
C                     1.90062000          -0.25747000           0.00000000         
H                    -2.41556000           0.56603000          -0.93319000         
H                    -2.41555000           0.56604000           0.93319000         
H                    -0.56642000          -1.12918000          -0.88129000         
H                    -0.56641000          -1.12917000           0.88129000         
H                     0.50990000           1.16835000           0.88167000         
H                     0.50990000           1.16835000          -0.88167000         
H                     1.97061000          -0.90110000          -0.88909000         
H                     1.97061000          -0.90110000           0.88909000         
H                     2.76114000           0.42050000           0.00000000         
13
Image 17 energy:-0.04078 
C                    -1.96407000           0.22795000           0.00000000         
C                    -0.64124000          -0.46137000           0.00000000         
C                     0.55116000           0.48810000          -0.00000000         
C                     1.90305000          -0.24958000          -0.00000000         
H                    -2.37557000           0.61870000          -0.93199000         
H                    -2.37556000           0.61870000           0.93199000         
H                    -0.55031000          -1.11714000          -0.88546000         
H                    -0.55033000          -1.11715000           0.88547000         
H                     0.46502000           1.14312000           0.88427000         
H                     0.46503000           1.14314000          -0.88427000         
H                     1.97951000          -0.89446000          -0.88873000         
H                     1.97951000          -0.89446000           0.88872000         
H                     2.76192000           0.43886000           0.00000000         
13
Image 18 energy:-0.04108 
C                    -1.95884000           0.23577000          -0.00000000         
C                    -0.66286000          -0.49250000          -0.00000000         
C                     0.55752000           0.49592000           0.00000000         
C                     1.90446000          -0.24358000          -0.00000000         
H                    -2.35107000           0.66065000          -0.92930000         
H                    -2.35105000           0.66067000           0.92930000         
H                    -0.56970000          -1.13761000          -0.88604000         
H                    -0.56969000          -1.13760000           0.88603000         
H                     0.48331000           1.15153000           0.88372000         
H                     0.48327000           1.15151000          -0.88372000         
H                     2.01429000          -0.88912000          -0.88990000         
H                     2.01429000          -0.88913000           0.88989000         
H                     2.74816000           0.48141000           0.00000000         
13
Image 19 energy:-0.04148 
C                    -1.96807000           0.23479000           0.00000000         
C                    -0.65770000          -0.47046000           0.00000000         
C                     0.56396000           0.49601000          -0.00000000         
C                     1.91005000          -0.25075000          -0.00000000         
H                    -2.41689000           0.57968000          -0.93135000         
H                    -2.41688000           0.57970000           0.93135000         
H                    -0.56937000          -1.12283000          -0.88430000         
H                    -0.56937000          -1.12282000           0.88430000         
H                     0.50535000           1.15597000           0.88219000         
H                     0.50536000           1.15598000          -0.88219000         
H                     2.00444000          -0.89651000          -0.88864000         
H                     2.00443000          -0.89652000           0.88862000         
H                     2.75985000           0.45309000           0.00001000         
