6
Image 1 energy:-0.01537 
C                    -0.37360000           0.00012000          -0.00006000         
H                     2.41719000           0.00065000          -0.00001000         
H                     3.16334000          -0.00118000           0.00089000         
H                    -0.37592000          -1.06972000          -0.15101000         
H                    -0.37825000           0.66474000          -0.85017000         
H                    -0.37792000           0.40408000           1.00100000         
6
Image 2 energy:-0.01534 
C                    -0.37973000           0.00059000          -0.00013000         
H                     2.46938000           0.00034000          -0.00028000         
H                     3.21541000          -0.00157000           0.00089000         
H                    -0.38444000          -1.07195000          -0.15194000         
H                    -0.39072000           0.66394000          -0.84859000         
H                    -0.38826000           0.40218000           1.00144000         
6
Image 3 energy:-0.01531 
C                    -0.37429000          -0.00167000           0.00042000         
H                     2.42379000           0.00066000          -0.00026000         
H                     3.16985000           0.00362000          -0.00066000         
H                    -0.38708000          -1.06271000          -0.15311000         
H                    -0.37191000           0.67091000          -0.85139000         
H                    -0.37803000           0.40741000           1.00045000         
6
Image 4 energy:-0.01533 
C                    -0.36920000           0.00158000          -0.00038000         
H                     2.37988000           0.00318000          -0.00076000         
H                     3.12625000          -0.00838000           0.00192000         
H                    -0.35714000          -1.07287000          -0.15096000         
H                    -0.38026000           0.66136000          -0.84815000         
H                    -0.37268000           0.39795000           1.00244000         
6
Image 5 energy:-0.01536 
C                    -0.36339000          -0.00061000           0.00015000         
H                     2.33155000          -0.00119000           0.00043000         
H                     3.07804000           0.00362000          -0.00102000         
H                    -0.36581000          -1.06694000          -0.15315000         
H                    -0.35589000           0.66810000          -0.84944000         
H                    -0.36104000           0.40365000           1.00135000         
6
Image 6 energy:-0.01533 
C                    -0.35631000           0.00016000          -0.00004000         
H                     2.27655000           0.00049000           0.00007000         
H                     3.02332000          -0.00087000           0.00011000         
H                    -0.35085000          -1.06859000          -0.15333000         
H                    -0.35297000           0.66637000          -0.84819000         
H                    -0.35357000           0.40065000           1.00185000         
6
Image 7 energy:-0.01528 
C                    -0.34891000          -0.00007000           0.00001000         
H                     2.22068000           0.00000000           0.00023000         
H                     2.96773000           0.00051000          -0.00018000         
H                    -0.34499000          -1.06805000          -0.15400000         
H                    -0.34354000           0.66748000          -0.84817000         
H                    -0.34548000           0.40090000           1.00200000         
6
Image 8 energy:-0.01519 
C                    -0.34094000           0.00001000          -0.00002000         
H                     2.16469000           0.00010000           0.00023000         
H                     2.91204000           0.00003000           0.00000000         
H                    -0.33882000          -1.06802000          -0.15428000         
H                    -0.33845000           0.66746000          -0.84778000         
H                    -0.33992000           0.40032000           1.00203000         
6
Image 9 energy:-0.01506 
C                    -0.33256000          -0.00001000          -0.00001000         
H                     2.10875000           0.00007000           0.00022000         
H                     2.85634000           0.00015000           0.00000000         
H                    -0.33506000          -1.06806000          -0.15454000         
H                    -0.33443000           0.66778000          -0.84777000         
H                    -0.33590000           0.40023000           1.00222000         
6
Image 10 energy:-0.01487 
C                    -0.32360000          -0.00001000          -0.00001000         
H                     2.05293000           0.00009000           0.00018000         
H                     2.80104000           0.00010000           0.00002000         
H                    -0.33352000          -1.06802000          -0.15467000         
H                    -0.33309000           0.66785000          -0.84765000         
H                    -0.33433000           0.40005000           1.00223000         
6
Image 11 energy:-0.01462 
C                    -0.31420000          -0.00001000          -0.00000000         
H                     1.99750000           0.00008000           0.00013000         
H                     2.74605000           0.00011000           0.00002000         
H                    -0.33404000          -1.06806000          -0.15478000         
H                    -0.33367000           0.66798000          -0.84764000         
H                    -0.33468000           0.40000000           1.00232000         
6
Image 12 energy:-0.01428 
C                    -0.30437000          -0.00001000          -0.00000000         
H                     1.94256000           0.00010000           0.00008000         
H                     2.69163000           0.00009000           0.00002000         
H                    -0.33657000          -1.06778000          -0.15481000         
H                    -0.33637000           0.66787000          -0.84736000         
H                    -0.33711000           0.39982000           1.00209000         
6
Image 13 energy:-0.01383 
C                    -0.29426000          -0.00001000           0.00000000         
H                     1.88787000           0.00010000           0.00004000         
H                     2.63781000           0.00010000           0.00001000         
H                    -0.34056000          -1.06755000          -0.15481000         
H                    -0.34047000           0.66779000          -0.84715000         
H                    -0.34095000           0.39970000           1.00190000         
6
Image 14 energy:-0.01326 
C                    -0.28383000          -0.00001000           0.00000000         
H                     1.83374000           0.00010000           0.00001000         
H                     2.58461000           0.00008000           0.00001000         
H                    -0.34618000          -1.06688000          -0.15473000         
H                    -0.34624000           0.66741000          -0.84658000         
H                    -0.34645000           0.39943000           1.00128000         
6
Image 15 energy:-0.01255 
C                    -0.27325000          -0.00001000          -0.00000000         
H                     1.77987000           0.00010000          -0.00001000         
H                     2.53178000           0.00008000           0.00002000         
H                    -0.35259000          -1.06605000          -0.15461000         
H                    -0.35275000           0.66692000          -0.84590000         
H                    -0.35274000           0.39911000           1.00051000         
6
Image 16 energy:-0.01167 
C                    -0.26253000          -0.00001000          -0.00000000         
H                     1.72590000           0.00010000          -0.00001000         
H                     2.47975000           0.00007000           0.00003000         
H                    -0.35983000          -1.06487000          -0.15444000         
H                    -0.36006000           0.66620000          -0.84494000         
H                    -0.35989000           0.39867000           0.99941000         
6
Image 17 energy:-0.01062 
C                    -0.25179000          -0.00001000          -0.00000000         
H                     1.67371000           0.00010000          -0.00001000         
H                     2.42658000           0.00007000           0.00003000         
H                    -0.36732000          -1.06349000          -0.15424000         
H                    -0.36758000           0.66533000          -0.84383000         
H                    -0.36733000           0.39815000           0.99812000         
6
Image 18 energy:-0.00937 
C                    -0.24132000          -0.00001000          -0.00001000         
H                     1.61304000           0.00010000          -0.00001000         
H                     2.38494000           0.00006000           0.00004000         
H                    -0.37476000          -1.06178000          -0.15400000         
H                    -0.37504000           0.66426000          -0.84247000         
H                    -0.37476000           0.39751000           0.99651000         
6
Image 19 energy:-0.00777 
C                    -0.23219000          -0.00001000          -0.00001000         
H                     1.58495000           0.00010000          -0.00000000         
H                     2.31991000           0.00006000           0.00003000         
H                    -0.37994000          -1.05971000          -0.15370000         
H                    -0.38024000           0.66295000          -0.84083000         
H                    -0.37996000           0.39672000           0.99457000         
6
Image 20 energy:-0.00666 
C                    -0.22313000          -0.00001000          -0.00001000         
H                     1.51138000           0.00010000          -0.00000000         
H                     2.30434000           0.00005000           0.00004000         
H                    -0.38622000          -1.05856000          -0.15355000         
H                    -0.38653000           0.66222000          -0.83992000         
H                    -0.38626000           0.39628000           0.99349000         
6
Image 21 energy:-0.00530 
C                    -0.21288000          -0.00001000          -0.00000000         
H                     1.47269000           0.00010000           0.00001000         
H                     2.23985000           0.00004000           0.00003000         
H                    -0.39246000          -1.05585000          -0.15316000         
H                    -0.39276000           0.66052000          -0.83778000         
H                    -0.39254000           0.39526000           0.99095000         
6
Image 22 energy:-0.00363 
C                    -0.20215000          -0.00000000          -0.00000000         
H                     1.40959000           0.00010000           0.00002000         
H                     2.20030000           0.00003000           0.00003000         
H                    -0.40083000          -1.05324000          -0.15280000         
H                    -0.40113000           0.65888000          -0.83571000         
H                    -0.40095000           0.39426000           0.98850000         
6
Image 23 energy:-0.00195 
C                    -0.19137000          -0.00000000          -0.00000000         
H                     1.35183000           0.00011000           0.00004000         
H                     2.15418000           0.00002000           0.00002000         
H                    -0.40899000          -1.05024000          -0.15237000         
H                    -0.40928000           0.65700000          -0.83332000         
H                    -0.40915000           0.39312000           0.98569000         
6
Image 24 energy:-0.00057 
C                    -0.18087000          -0.00000000          -0.00001000         
H                     1.28847000           0.00011000           0.00006000         
H                     2.11807000           0.00001000           0.00000000         
H                    -0.41750000          -1.04680000          -0.15186000         
H                    -0.41779000           0.65488000          -0.83057000         
H                    -0.41769000           0.39183000           0.98245000         
6
Image 25 energy:0.00000 
C                    -0.17202000          -0.00000000          -0.00000000         
H                     1.21118000           0.00011000           0.00005000         
H                     2.11516000           0.00002000          -0.00002000         
H                    -0.42592000          -1.04375000          -0.15142000         
H                    -0.42614000           0.65297000          -0.82815000         
H                    -0.42612000           0.39069000           0.97958000         
6
Image 26 energy:-0.00089 
C                    -0.16316000          -0.00001000           0.00000000         
H                     1.13389000           0.00011000           0.00005000         
H                     2.11225000           0.00004000          -0.00005000         
H                    -0.43434000          -1.04069000          -0.15098000         
H                    -0.43450000           0.65106000          -0.82573000         
H                    -0.43455000           0.38954000           0.97671000         
6
Image 27 energy:-0.00345 
C                    -0.15587000          -0.00000000           0.00000000         
H                     1.05633000           0.00010000           0.00004000         
H                     2.12799000           0.00004000          -0.00005000         
H                    -0.44267000          -1.03764000          -0.15054000         
H                    -0.44283000           0.64913000          -0.82334000         
H                    -0.44289000           0.38840000           0.97385000         
6
Image 28 energy:-0.00623 
C                    -0.15024000          -0.00000000           0.00000000         
H                     0.98502000           0.00010000           0.00004000         
H                     2.16408000           0.00005000          -0.00005000         
H                    -0.45329000          -1.03393000          -0.15000000         
H                    -0.45344000           0.64680000          -0.82040000         
H                    -0.45351000           0.38700000           0.97037000         
6
Image 29 energy:-0.00829 
C                    -0.14781000          -0.00000000           0.00001000         
H                     0.94786000           0.00010000           0.00005000         
H                     2.23074000           0.00005000          -0.00006000         
H                    -0.47274000          -1.02823000          -0.14918000         
H                    -0.47288000           0.64322000          -0.81588000         
H                    -0.47298000           0.38486000           0.96500000         
6
Image 30 energy:-0.01020 
C                    -0.15057000          -0.00000000           0.00001000         
H                     0.95905000           0.00011000           0.00007000         
H                     2.30667000           0.00006000          -0.00007000         
H                    -0.49086000          -1.02311000          -0.14843000         
H                    -0.49098000           0.64001000          -0.81183000         
H                    -0.49112000           0.38294000           0.96019000         
6
Image 31 energy:-0.01180 
C                    -0.15309000          -0.00000000           0.00000000         
H                     0.93036000           0.00012000           0.00009000         
H                     2.38474000           0.00006000          -0.00007000         
H                    -0.49730000          -1.02104000          -0.14814000         
H                    -0.49744000           0.63871000          -0.81017000         
H                    -0.49756000           0.38216000           0.95822000         
6
Image 32 energy:-0.01325 
C                    -0.15779000          -0.00000000           0.00001000         
H                     0.94260000           0.00013000           0.00010000         
H                     2.46325000           0.00006000          -0.00008000         
H                    -0.50890000          -1.01984000          -0.14796000         
H                    -0.50903000           0.63796000          -0.80923000         
H                    -0.50919000           0.38171000           0.95711000         
6
Image 33 energy:-0.01450 
C                    -0.16109000          -0.00000000           0.00001000         
H                     0.91966000           0.00013000           0.00012000         
H                     2.54257000           0.00006000          -0.00008000         
H                    -0.51457000          -1.01890000          -0.14783000         
H                    -0.51470000           0.63738000          -0.80848000         
H                    -0.51486000           0.38136000           0.95621000         
6
Image 34 energy:-0.01561 
C                    -0.16635000          -0.00000000           0.00001000         
H                     0.92673000           0.00014000           0.00013000         
H                     2.62257000           0.00006000          -0.00009000         
H                    -0.52271000          -1.01801000          -0.14771000         
H                    -0.52283000           0.63682000          -0.80778000         
H                    -0.52302000           0.38102000           0.95538000         
6
Image 35 energy:-0.01655 
C                    -0.17037000          -0.00000000           0.00001000         
H                     0.91154000           0.00014000           0.00014000         
H                     2.70344000           0.00006000          -0.00009000         
H                    -0.52867000          -1.01759000          -0.14765000         
H                    -0.52879000           0.63656000          -0.80745000         
H                    -0.52900000           0.38086000           0.95498000         
6
Image 36 energy:-0.01737 
C                    -0.17572000          -0.00000000           0.00001000         
H                     0.91374000           0.00014000           0.00017000         
H                     2.78455000           0.00006000          -0.00010000         
H                    -0.53519000          -1.01702000          -0.14758000         
H                    -0.53529000           0.63621000          -0.80700000         
H                    -0.53551000           0.38065000           0.95444000         
6
Image 37 energy:-0.01806 
C                    -0.18022000          -0.00000000           0.00001000         
H                     0.90303000           0.00014000           0.00017000         
H                     2.86609000           0.00006000          -0.00011000         
H                    -0.54095000          -1.01684000          -0.14756000         
H                    -0.54103000           0.63610000          -0.80686000         
H                    -0.54131000           0.38058000           0.95427000         
6
Image 38 energy:-0.01866 
C                    -0.18555000          -0.00000000           0.00001000         
H                     0.90235000           0.00014000           0.00021000         
H                     2.94770000           0.00006000          -0.00011000         
H                    -0.54678000          -1.01651000          -0.14753000         
H                    -0.54686000           0.63590000          -0.80659000         
H                    -0.54710000           0.38045000           0.95396000         
6
Image 39 energy:-0.01917 
C                    -0.19033000          -0.00000000           0.00001000         
H                     0.89414000           0.00012000           0.00018000         
H                     3.02951000           0.00005000          -0.00013000         
H                    -0.55232000          -1.01643000          -0.14753000         
H                    -0.55235000           0.63586000          -0.80653000         
H                    -0.55274000           0.38041000           0.95388000         
6
Image 40 energy:-0.01960 
C                    -0.19564000          -0.00000000          -0.00000000         
H                     0.89191000           0.00012000           0.00029000         
H                     3.11133000           0.00006000          -0.00010000         
H                    -0.55784000          -1.01623000          -0.14752000         
H                    -0.55791000           0.63575000          -0.80638000         
H                    -0.55808000           0.38034000           0.95371000         
6
Image 41 energy:-0.01995 
C                    -0.20058000           0.00000000           0.00003000         
H                     0.88506000           0.00009000           0.00013000         
H                     3.19326000           0.00004000          -0.00021000         
H                    -0.56314000          -1.01621000          -0.14754000         
H                    -0.56302000           0.63576000          -0.80638000         
H                    -0.56382000           0.38032000           0.95367000         
6
Image 42 energy:-0.02025 
C                    -0.20585000          -0.00001000          -0.00004000         
H                     0.88183000           0.00012000           0.00056000         
H                     3.27517000           0.00007000           0.00004000         
H                    -0.56871000          -1.01608000          -0.14751000         
H                    -0.56890000           0.63571000          -0.80625000         
H                    -0.56834000           0.38029000           0.95362000         
6
Image 43 energy:-0.02049 
C                    -0.21088000           0.00002000           0.00013000         
H                     0.87563000          -0.00002000          -0.00032000         
H                     3.35707000          -0.00003000          -0.00067000         
H                    -0.57340000          -1.01610000          -0.14767000         
H                    -0.57264000           0.63572000          -0.80639000         
H                    -0.57574000           0.38025000           0.95346000         
6
Image 44 energy:-0.02069 
C                    -0.21609000          -0.00005000          -0.00032000         
H                     0.87180000           0.00025000           0.00190000         
H                     3.43860000           0.00024000           0.00128000         
H                    -0.58029000          -1.01595000          -0.14728000         
H                    -0.58187000           0.63575000          -0.80590000         
H                    -0.57531000           0.38029000           0.95384000         
6
Image 45 energy:-0.02083 
C                    -0.22098000           0.00011000           0.00081000         
H                     0.86620000          -0.00056000          -0.00368000         
H                     3.51757000          -0.00044000          -0.00346000         
H                    -0.58123000          -1.01610000          -0.14835000         
H                    -0.57674000           0.63566000          -0.80696000         
H                    -0.59463000           0.38010000           0.95275000         
6
Image 46 energy:-0.02093 
C                    -0.22551000          -0.00016000          -0.00106000         
H                     0.86220000           0.00114000           0.00897000         
H                     3.58945000           0.00054000           0.00288000         
H                    -0.59278000          -1.01581000          -0.14732000         
H                    -0.59782000           0.63571000          -0.80577000         
H                    -0.57595000           0.38034000           0.95389000         
6
Image 47 energy:-0.02108 
C                    -0.22993000           0.00007000           0.00051000         
H                     0.85806000          -0.00100000          -0.00458000         
H                     3.65972000          -0.00002000          -0.00135000         
H                    -0.59154000          -1.01586000          -0.14752000         
H                    -0.58832000           0.63589000          -0.80607000         
H                    -0.60015000           0.38016000           0.95340000         
6
Image 48 energy:-0.02119 
C                    -0.23482000          -0.00005000          -0.00015000         
H                     0.85287000          -0.00036000           0.00027000         
H                     3.73749000           0.00048000           0.00107000         
H                    -0.59941000          -1.01573000          -0.14742000         
H                    -0.59942000           0.63589000          -0.80586000         
H                    -0.59554000           0.38035000           0.95379000         
6
Image 49 energy:-0.02129 
C                    -0.24001000           0.00002000          -0.00004000         
H                     0.84825000          -0.00089000          -0.00135000         
H                     3.81910000           0.00022000           0.00092000         
H                    -0.60334000          -1.01578000          -0.14732000         
H                    -0.60362000           0.63598000          -0.80572000         
H                    -0.60268000           0.38026000           0.95394000         
6
Image 50 energy:-0.02137 
C                    -0.24514000          -0.00016000          -0.00007000         
H                     0.84285000          -0.00051000          -0.00144000         
H                     3.90098000           0.00111000           0.00124000         
H                    -0.61108000          -1.01552000          -0.14734000         
H                    -0.60760000           0.63631000          -0.80564000         
H                    -0.60630000           0.38052000           0.95402000         
6
Image 51 energy:-0.02143 
C                    -0.25027000           0.00037000          -0.00015000         
H                     0.83808000          -0.00223000          -0.00157000         
H                     3.98205000          -0.00134000           0.00184000         
H                    -0.60922000          -1.01616000          -0.14721000         
H                    -0.61806000           0.63566000          -0.80546000         
H                    -0.61297000           0.37973000           0.95423000         
6
Image 52 energy:-0.02146 
C                    -0.25495000          -0.00105000           0.00004000         
H                     0.83328000           0.00274000          -0.00252000         
H                     4.05705000           0.00490000           0.00114000         
H                    -0.63299000          -1.01436000          -0.14751000         
H                    -0.60863000           0.63757000          -0.80555000         
H                    -0.61299000           0.38160000           0.95398000         
6
Image 53 energy:-0.02148 
C                    -0.25908000           0.00095000          -0.00027000         
H                     0.82921000          -0.01154000          -0.00046000         
H                     4.12309000          -0.00104000           0.00211000         
H                    -0.61205000          -1.01546000          -0.14734000         
H                    -0.63212000           0.63635000          -0.80527000         
H                    -0.62325000           0.38038000           0.95412000         
6
Image 54 energy:-0.02157 
C                    -0.26334000          -0.00043000          -0.00006000         
H                     0.82508000          -0.00071000          -0.00205000         
H                     4.19054000           0.00290000           0.00155000         
H                    -0.63432000          -1.01475000          -0.14742000         
H                    -0.62257000           0.63695000          -0.80551000         
H                    -0.62319000           0.38078000           0.95414000         
6
Image 55 energy:-0.02161 
C                    -0.26832000          -0.00007000          -0.00012000         
H                     0.82014000          -0.00382000          -0.00162000         
H                     4.26931000           0.00173000           0.00187000         
H                    -0.63393000          -1.01493000          -0.14755000         
H                    -0.63147000           0.63705000          -0.80536000         
H                    -0.62924000           0.38079000           0.95412000         
6
Image 56 energy:-0.02165 
C                    -0.27348000          -0.00013000          -0.00012000         
H                     0.81511000          -0.00342000          -0.00173000         
H                     4.35110000           0.00192000           0.00199000         
H                    -0.64021000          -1.01487000          -0.14771000         
H                    -0.63566000           0.63723000          -0.80534000         
H                    -0.63402000           0.38067000           0.95424000         
6
Image 57 energy:-0.02167 
C                    -0.27865000          -0.00011000          -0.00014000         
H                     0.80995000          -0.00364000          -0.00174000         
H                     4.43312000           0.00179000           0.00219000         
H                    -0.64522000          -1.01481000          -0.14790000         
H                    -0.64088000           0.63743000          -0.80524000         
H                    -0.63913000           0.38057000           0.95431000         
6
Image 58 energy:-0.02170 
C                    -0.28381000          -0.00011000          -0.00015000         
H                     0.80488000          -0.00374000          -0.00178000         
H                     4.51515000           0.00167000           0.00241000         
H                    -0.65055000          -1.01472000          -0.14812000         
H                    -0.64595000           0.63765000          -0.80511000         
H                    -0.64421000           0.38041000           0.95438000         
