56
 energy: -94.064803470295 gnorm: 0.002052874812 xtb: 6.4.0 (d4b70c2)
C        -3.14559348065881    0.82296099767872    0.07985350939421
C        -4.41795528469206    1.18842496013379   -0.66681003515129
C        -2.18913502461201    2.02705249891929    0.11552161451474
O        -2.09978010819332    2.79198934782809   -0.83117150466417
O        -2.02015424613458   -1.57726130929282    1.14541141272860
O        -0.91260531402017   -0.80180390840526   -2.98691433204207
N        -2.37813342284167   -0.20153740989872   -0.61711190060164
C        -1.77475511004741   -1.23210642301936    0.01151341378884
C        -0.56268964697282   -1.79286326350207   -0.77557941596136
C        -0.82233314945535   -2.01661831280589   -2.27633535381011
N         0.43159999999987   -0.74139999999995   -0.52259999999996
N        -1.34837499537761    2.07613116980309    1.16238515308831
C        -0.27404187172317    3.05742066595098    1.25429651005689
C         0.10630194079728    3.31167703527172    2.70306082243583
C         0.96882304766472    2.59398616913431    0.45802292495535
O         2.09429418203029    2.73653467455527    0.85336301344289
N         0.62538833906416    1.97841924675481   -0.71233589165395
O         2.24637126573332   -0.93039922624808   -2.08683868632447
O         2.43660000000013   -0.09520000000016    0.40470000000015
C         1.61648674938058    1.35708250139503   -1.55792881156989
C         1.65620000000032   -0.16440000000043   -1.37869999999966
C         1.40882243087427    1.71497679712935   -3.02667698212053
H        -3.35812286382523    0.44480360750995    1.08325447117127
H        -4.16099451817572    1.63716149363033   -1.62383683954698
H        -4.98211725381324    1.91682036006600   -0.09016255543256
H        -5.03332629524754    0.30913045903596   -0.82982635960809
H        -0.02861089203834   -0.56138806367729   -3.28862111254211
H        -2.16756384393877   -0.02576473966256   -1.59428788587845
H        -0.23751071265691   -2.73089929878262   -0.31832650404607
H        -1.77900333058202   -2.53362139924092   -2.39566946586088
H        -0.02858163963632   -2.64616623431199   -2.68568761352960
H         1.18419999999979   -0.67919999999992    0.35500000000014
H        -0.08592524494948    0.13976650578603   -0.37627773331409
H        -1.42899815888030    1.41335043360381    1.91893032269009
H        -0.63462852734301    3.97813900286899    0.77725077807185
H        -0.72120219929796    3.74931378625309    3.25447078270258
H         0.95567882304864    3.98817133765582    2.73244333824694
H         0.40898039559159    2.38111461786161    3.17865232012605
H        -0.23521182939472    2.28031721698314   -1.15676736934410
H         2.60357925977999    1.70364711156628   -1.22714825726159
H         2.05988726837674    1.10352866456467   -3.64632764822666
H         1.65955104409147    2.76004977417565   -3.18776151644548
H         0.37242339890946    1.56066497123222   -3.32385031192896
C         3.08076825010102   -1.25105706434761    0.63165349854560
C         4.19580799742659   -1.66426665390397   -0.11971352322997
C         2.53047744223991   -2.15462013515780    1.55580427500014
C         4.69438557012164   -2.95899149517261    0.04969818993399
C         4.13571275684362   -3.83270203123955    0.95545240345858
C         3.05670704522775   -3.41565522002646    1.72590626746154
H         1.67345655062983   -1.84292445737660    2.14077790303183
H         4.52312063713132   -4.83433987936595    1.06503845671456
H         2.60539362705517   -4.08922201015978    2.44045593501658
H         5.53142764525512   -3.25381878464936   -0.56552834339965
C         4.82326505718860   -0.77176099068753   -1.09142964323625
O         5.65648727501596   -1.09673844999402   -1.90149233710269
H         4.48465878883423    0.27804769804317   -1.01168521003470
